<?xml version="1.0" ?>
<xml>
	<section id="Logout">
		<execute>
			<if var="Auth::isCertification()" val="true">
				<view/>
			</if>
			<else>
				<flow section="login"/>
			</else>
		</execute>
	</section>
	<section id="Logout-exec">
		<execute>
			<cancelthisbackflow/>
			<clearbackflow/>
			<execute class="Auth" method="unCertify"/>
			<flow section="backflow" redirect="true"/>
		</execute>
	</section>
</xml>