<?xml version="1.0" ?>
<xml>
	<section id="Login">
		<execute>
			<if val="true !== Auth::isCertification()">
				<view flowpostformsection="login/certfy"/>
			</if>
			<flow section="backflow"/>
		</execute>
	</section>
	<section id="Login-certfy">
		<execute>
			<if val="true !== $autoValidated">
				<flowpostformsectionerror>メールアドレスとパスワードが間違っています</flowpostformsectionerror>
				<cancelthisbackflow/>
				<flow section="login"/>
			</if>
			<if val="true !== Auth::certify()">
				<flowpostformsectionerror>ログイン出来ませんでした</flowpostformsectionerror>
				<cancelthisbackflow/>
				<flow section="login"/>
			</if>
			<flow section="backflow"/>
		</execute>
	</section>
</xml>