<?xml version="1.0" ?>
<xml>
	<section id="Fwm">
		<execute>
			<if val="true !== Auth::isCertification()">
				<flow section="login"/>
			</if>
			<flowviewparam selector="#fwm-contents" val="HtmlViewAssignor::buildSetAttribute('src', getConfig('BASE_URL', Flow::$params['get']['target_project']).str_replace('=', '/', str_replace('_', '.', Flow::$params['get']['target_url'])).'?access_token='.AccessTokenAuth::generate(Auth::getCertifiedUser()->permission, false, null, null, Flow::$params['get']['target_project']))"/>
			<view/>
		</execute>
	</section>
	<!-- フレームワーク管理ツールのMyAdmin用SSOフロー -->
	<section id="Fwm-pma-auth">
		<execute>
			<if val="true !== Auth::isCertification()">
				<flow section="login"/>
			</if>
			<else>
				<execute val="@session_write_close();"/>
				<execute val="session_set_cookie_params(0, '/', '', 0);"/>
				<execute val="session_name('fwm_pma_refresh_token');"/>
				<execute val="@session_start();"/>
				<execute val="$_SESSION['PMA_single_signon_user'] = parse_url(getConfig('DB_DSN'), PHP_URL_USER);"/>
				<execute val="$_SESSION['PMA_single_signon_password'] = parse_url(getConfig('DB_DSN'), PHP_URL_PASS);"/>
				<execute val="$_SESSION['PMA_single_signon_host'] = parse_url(getConfig('DB_DSN'), PHP_URL_HOST);"/>
				<execute val="@session_write_close();"/>
				<execute val="$callback = './supple/myadm/'"/>
				<if val="isset($_GET['callback'])">
					<execute val="$callback = $_GET['callback']"/>
					<execute val="unset($_GET['callback'])"/>
				</if>
				<execute val="header('location:./supple/myadm/')"/>
			</else>
		</execute>
	</section>
</xml>